omf/data/Model/public/Demo GridLABD Transmission System/xOUT_9T_current_dump.csv
# xOUT_9T_current_dump.csv run at 2013-08-01 00:00:00 PST on 9 links
link_name,currA_real,currA_imag,currB_real,currB_imag,currC_real,currC_imag
line_1_4,120.415057,-40.279714,-95.090784,-84.142642,-25.324273,124.422355
line_4_5,52.095953,-1.195557,-27.083359,-44.518640,-25.012593,45.714197
line_5_6,-99.770784,35.059914,80.248168,68.874077,19.522616,-103.933991
line_3_6,141.244872,17.916425,-55.106357,-131.279860,-86.138515,113.363435
line_6_7,40.436921,-6.211778,-25.598018,-31.913512,-14.838903,38.125290
line_7_8,-129.206316,16.595244,78.975061,103.598330,50.231255,-120.193574
line_8_2,-272.966656,-21.958587,117.466634,247.375352,155.500022,-225.416765
line_8_9,144.716562,13.873565,-60.343421,-132.265001,-84.373141,118.391436
line_9_4,-66.639097,67.668480,91.922171,23.876911,-25.283074,-91.545391
